
**** 03/11/21 01:39:00 ********* PSpice 9.2 (Mar 2000) ******** ID# 0 ********

 * C:\Users\Ishan's PC\Desktop\Projects\EDC\InvertingAmplifier.sch


 ****     CIRCUIT DESCRIPTION


******************************************************************************




* Schematics Version 9.2
* Fri Dec 04 21:42:30 2020



** Analysis setup **
.tran 0ns 5us
.OP 


* From [PSPICE NETLIST] section of C:\Program Files\Orcad\PSpice\PSpice.ini:
.lib "nom.lib"

.INC "InvertingAmplifier.net"



**** INCLUDING InvertingAmplifier.net ****
* Schematics Netlist *



R_R1         $N_0002 $N_0001  1k  
E_U1         $N_0003 0 VALUE {LIMIT(V(0,$N_0001)*1E6,-15V,+15V)}
R_R3         $N_0001 $N_0003  1k  
V_V2         $N_0002 0  
+SIN 0 5v 1Mega 0 0 0
R_R2         0 $N_0003  10k  

**** RESUMING InvertingAmplifier.cir ****
.PROBE V(*) I(*) W(*) D(*) NOISE(*) 


.END

**** 03/11/21 01:39:00 ********* PSpice 9.2 (Mar 2000) ******** ID# 0 ********

 * C:\Users\Ishan's PC\Desktop\Projects\EDC\InvertingAmplifier.sch


 ****     SMALL SIGNAL BIAS SOLUTION       TEMPERATURE =   27.000 DEG C


******************************************************************************



 NODE   VOLTAGE     NODE   VOLTAGE     NODE   VOLTAGE     NODE   VOLTAGE


($N_0001)    0.0000                   ($N_0002)    0.0000                       

($N_0003)    0.0000                   




    VOLTAGE SOURCE CURRENTS
    NAME         CURRENT

    V_V2         0.000E+00

    TOTAL POWER DISSIPATION   0.00E+00  WATTS


**** 03/11/21 01:39:00 ********* PSpice 9.2 (Mar 2000) ******** ID# 0 ********

 * C:\Users\Ishan's PC\Desktop\Projects\EDC\InvertingAmplifier.sch


 ****     OPERATING POINT INFORMATION      TEMPERATURE =   27.000 DEG C


******************************************************************************






**** VOLTAGE-CONTROLLED VOLTAGE SOURCES


NAME         E_U1      
V-SOURCE     0.000E+00
I-SOURCE     0.000E+00
**** 03/11/21 01:39:00 ********* PSpice 9.2 (Mar 2000) ******** ID# 0 ********

 * C:\Users\Ishan's PC\Desktop\Projects\EDC\InvertingAmplifier.sch


 ****     INITIAL TRANSIENT SOLUTION       TEMPERATURE =   27.000 DEG C


******************************************************************************



 NODE   VOLTAGE     NODE   VOLTAGE     NODE   VOLTAGE     NODE   VOLTAGE


($N_0001)    0.0000                   ($N_0002)    0.0000                       

($N_0003)    0.0000                   




    VOLTAGE SOURCE CURRENTS
    NAME         CURRENT

    V_V2         0.000E+00

    TOTAL POWER DISSIPATION   0.00E+00  WATTS



          JOB CONCLUDED

          TOTAL JOB TIME             .13
