Circuit: * C:\Users\Ishan's PC\Desktop\Sem 4\Lab\LIC\Final\Simulation Files\Draft1.asc

Direct Newton iteration for .op point succeeded.

Date: Tue Jun 01 02:41:57 2021
Total elapsed time: 0.109 seconds.

tnom = 27
temp = 27
method = modified trap
totiter = 2108
traniter = 2094
tranpoints = 1048
accept = 1047
rejected = 1
matrix size = 11
fillins = 2
solver = Normal
Matrix Compiler1: 570 bytes object code size  0.1/0.1/[0.0]
Matrix Compiler2: off  [0.1]/0.1/0.1

